306 Power Project -kimi k3-v4/results/presentation/emergency/bus_results.csv
Case_ID,Bus,Vnom_kV,V_pu_66base,V_kV,Angle_deg,P_MW,Q_MVAr
E1_GAT_BACKFEED,B6_6_AUX,6.600000,0.955123,6.303812,0.000000,-14.000000,-8.676421
E1_GAT_BACKFEED,B230_BOUNDARY,230.000000,0.999534,229.892745,0.000000,0.000000,0.000000
E1_GAT_BACKFEED,B22_DEADBUS,22.000000,,,,0.000000,0.000000
E2_GSUT_UAT_BACKFEED,B6_6_AUX,6.600000,0.958127,6.323636,0.000000,-14.000000,-8.676421
E2_GSUT_UAT_BACKFEED,B230_BOUNDARY,230.000000,0.999534,229.892745,0.000000,0.000000,0.000000
E2_GSUT_UAT_BACKFEED,B22_DEADBUS,22.000000,,,,0.000000,0.000000
E3_PARALLEL_BACKFEED,B6_6_AUX,6.600000,0.977846,6.453784,0.000000,-14.000000,-8.676421
E3_PARALLEL_BACKFEED,B230_BOUNDARY,230.000000,0.999534,229.892745,0.000000,0.000000,0.000000
E3_PARALLEL_BACKFEED,B22_DEADBUS,22.000000,,,,0.000000,0.000000
E4_BLACKOUT,B6_6_AUX,6.600000,0.000000,0.000000,,0.000000,0.000000
E4_BLACKOUT,B230_BOUNDARY,230.000000,,,,0.000000,0.000000
E4_BLACKOUT,B22_DEADBUS,22.000000,0.000000,0.000000,,0.000000,0.000000
E5_GAT_CHARGER_OUT,B6_6_AUX,6.600000,0.955123,6.303812,0.000000,-14.000000,-8.676421
E5_GAT_CHARGER_OUT,B230_BOUNDARY,230.000000,0.999534,229.892745,0.000000,0.000000,0.000000
E5_GAT_CHARGER_OUT,B22_DEADBUS,22.000000,,,,0.000000,0.000000
